Version,9.4;

!-   ===========  ALL OBJECTS IN CLASS: GLOBALGEOMETRYRULES ===========

GlobalGeometryRules,
  LowerLeftCorner,         !- Starting Vertex Position
  Counterclockwise,        !- Vertex Entry Direction
  Relative;                !- Coordinate System

BuildingSurface:Detailed,
  ceiling_unit1,           !- Name
  Ceiling,                 !- Surface Type
  Interior Ceiling,        !- Construction Name
  living_unit1,            !- Zone Name
  Zone,                    !- Outside Boundary Condition
  attic_unit1,             !- Outside Boundary Condition Object
  NoSun,                   !- Sun Exposure
  NoWind,                  !- Wind Exposure
  0.0,                     !- View Factor to Ground
  4,                       !- Number of Vertices
  0,0,2.89634146341463,  !- X,Y,Z ==> Vertex 1 {m}
  10.4398,0,2.89634146341463,  !- X,Y,Z ==> Vertex 2 {m}
  10.4398,9.09981820971244,2.89634146341463,  !- X,Y,Z ==> Vertex 3 {m}
  0,9.09981820971244,2.89634146341463;  !- X,Y,Z ==> Vertex 4 {m}

!-   ===========  ALL OBJECTS IN CLASS: ZONE ===========

Zone,
  living_unit1,            !- Name
  0.0,                     !- Direction of Relative North {deg}
  0.0,                     !- X Origin {m}
  0.0,                     !- Y Origin {m}
  0.0,                     !- Z Origin {m}
  ,                        !- Type
  1;                       !- Multiplier

Zone,
  attic_unit1,             !- Name
  0.0,                     !- Direction of Relative North {deg}
  0.0,                     !- X Origin {m}
  0.0,                     !- Y Origin {m}
  0.0,                     !- Z Origin {m}
  ,                        !- Type
  1;                       !- Multiplier

InternalMass,
  Internalmass_unit1,      !- Name
  InteriorFurnishings,     !- Construction Name
  living_unit1,            !- Zone or ZoneList Name
  300;        !- Surface Area {m2}

BuildingSurface:Detailed,
  Roof_front_unit1,        !- Name
  Roof,                    !- Surface Type
  Exterior Roof,           !- Construction Name
  attic_unit1,             !- Zone Name
  Outdoors,                !- Outside Boundary Condition
  ,                        !- Outside Boundary Condition Object
  SunExposed,              !- Sun Exposure
  WindExposed,             !- Wind Exposure
  0.0,                     !- View Factor to Ground
  4,                       !- Number of Vertices
  0,0,2.89634146341463,  !- X,Y,Z ==> Vertex 1 {m}
  10.4398,0,2.89634146341463,  !- X,Y,Z ==> Vertex 2 {m}
  10.4398,4.54990910485622,4.10809978291955,  !- X,Y,Z ==> Vertex 3 {m}
  0,4.54990910485622,4.10809978291955;  !- X,Y,Z ==> Vertex 4 {m}

BuildingSurface:Detailed,
  Roof_back_unit1,         !- Name
  Roof,                    !- Surface Type
  Exterior Roof,           !- Construction Name
  attic_unit1,             !- Zone Name
  Outdoors,                !- Outside Boundary Condition
  ,                        !- Outside Boundary Condition Object
  SunExposed,              !- Sun Exposure
  WindExposed,             !- Wind Exposure
  0.0,                     !- View Factor to Ground
  4,                       !- Number of Vertices
  10.4398,9.09981820971244,2.89634146341463,  !- X,Y,Z ==> Vertex 1 {m}
  0,9.09981820971244,2.89634146341463,  !- X,Y,Z ==> Vertex 2 {m}
  0,4.54990910485622,4.10809978291955,  !- X,Y,Z ==> Vertex 3 {m}
  10.4398,4.54990910485622,4.10809978291955;  !- X,Y,Z ==> Vertex 4 {m}

BuildingSurface:Detailed,
  Roof_right_unit1,        !- Name
  Wall,                    !- Surface Type
  Gable_end,               !- Construction Name
  attic_unit1,             !- Zone Name
  Outdoors,                !- Outside Boundary Condition
  ,                        !- Outside Boundary Condition Object
  SunExposed,              !- Sun Exposure
  WindExposed,             !- Wind Exposure
  ,                        !- View Factor to Ground
  3,                       !- Number of Vertices
  10.4398,0,2.89634146341463,  !- X,Y,Z ==> Vertex 1 {m}
  10.4398,9.09981820971244,2.89634146341463,  !- X,Y,Z ==> Vertex 2 {m}
  10.4398,4.54990910485622,4.10809978291955;  !- X,Y,Z ==> Vertex 3 {m}

BuildingSurface:Detailed,
  Roof_left_unit1,         !- Name
  Wall,                    !- Surface Type
  Gable_end,               !- Construction Name
  attic_unit1,             !- Zone Name
  Outdoors,                !- Outside Boundary Condition
  ,                        !- Outside Boundary Condition Object
  SunExposed,              !- Sun Exposure
  WindExposed,             !- Wind Exposure
  ,                        !- View Factor to Ground
  3,                       !- Number of Vertices
  0,9.09981820971244,2.89634146341463,  !- X,Y,Z ==> Vertex 1 {m}
  0,0,2.89634146341463,  !- X,Y,Z ==> Vertex 2 {m}
  0,4.54990910485622,4.10809978291955;  !- X,Y,Z ==> Vertex 3 {m}

BuildingSurface:Detailed,
  Wall_ldf_1.unit1,        !- Name
  Wall,                    !- Surface Type
  Exterior Wall,           !- Construction Name
  living_unit1,            !- Zone Name
  Outdoors,                !- Outside Boundary Condition
  ,                        !- Outside Boundary Condition Object
  SunExposed,              !- Sun Exposure
  WindExposed,             !- Wind Exposure
  ,                        !- View Factor to Ground
  4,                       !- Number of Vertices
  0,0,0.304878048780488,  !- X,Y,Z ==> Vertex 1 {m}
  10.4398,0,0.304878048780488,  !- X,Y,Z ==> Vertex 2 {m}
  10.4398,0,2.89634146341463,  !- X,Y,Z ==> Vertex 3 {m}
  0,0,2.89634146341463;  !- X,Y,Z ==> Vertex 4 {m}

BuildingSurface:Detailed,
  Wall_sdr_1.unit1,        !- Name
  Wall,                    !- Surface Type
  Exterior Wall,           !- Construction Name
  living_unit1,            !- Zone Name
  Outdoors,                !- Outside Boundary Condition
  ,                        !- Outside Boundary Condition Object
  SunExposed,              !- Sun Exposure
  WindExposed,             !- Wind Exposure
  ,                        !- View Factor to Ground
  4,                       !- Number of Vertices
  10.4398,0,0.304878048780488,  !- X,Y,Z ==> Vertex 1 {m}
  10.4398,9.09981820971244,0.304878048780488,  !- X,Y,Z ==> Vertex 2 {m}
  10.4398,9.09981820971244,2.89634146341463,  !- X,Y,Z ==> Vertex 3 {m}
  10.4398,0,2.89634146341463;  !- X,Y,Z ==> Vertex 4 {m}

BuildingSurface:Detailed,
  Wall_ldb_1.unit1,        !- Name
  Wall,                    !- Surface Type
  Exterior Wall,           !- Construction Name
  living_unit1,            !- Zone Name
  Outdoors,                !- Outside Boundary Condition
  ,                        !- Outside Boundary Condition Object
  SunExposed,              !- Sun Exposure
  WindExposed,             !- Wind Exposure
  ,                        !- View Factor to Ground
  4,                       !- Number of Vertices
  10.4398,9.09981820971244,0.304878048780488,  !- X,Y,Z ==> Vertex 1 {m}
  0,9.09981820971244,0.304878048780488,  !- X,Y,Z ==> Vertex 2 {m}
  0,9.09981820971244,2.89634146341463,  !- X,Y,Z ==> Vertex 3 {m}
  10.4398,9.09981820971244,2.89634146341463;  !- X,Y,Z ==> Vertex 4 {m}

BuildingSurface:Detailed,
  Wall_sdl_1.unit1,        !- Name
  Wall,                    !- Surface Type
  Exterior Wall,           !- Construction Name
  living_unit1,            !- Zone Name
  Outdoors,                !- Outside Boundary Condition
  ,                        !- Outside Boundary Condition Object
  SunExposed,              !- Sun Exposure
  WindExposed,             !- Wind Exposure
  ,                        !- View Factor to Ground
  4,                       !- Number of Vertices
  0,9.09981820971244,0.304878048780488,  !- X,Y,Z ==> Vertex 1 {m}
  0,0,0.304878048780488,  !- X,Y,Z ==> Vertex 2 {m}
  0,0,2.89634146341463,  !- X,Y,Z ==> Vertex 3 {m}
  0,9.09981820971244,2.89634146341463;  !- X,Y,Z ==> Vertex 4 {m}

Window,
  Window_ldf_1.unit1,      !- Name
  Exterior Window,         !- Construction Name
  Wall_ldf_1.unit1,        !- Building Surface Name
  ,                        !- Frame and Divider Name
  1,                       !- Multiplier
  1,                       !- Starting X Coordinate {m}
  0.914634146341463,       !- Starting Z Coordinate {m}
  2.19153955217241,        !- Length {m}
  1.52439024390244;        !- Height {m}

Window,
  Window_ldb_1.unit1,      !- Name
  Exterior Window,         !- Construction Name
  Wall_ldb_1.unit1,        !- Building Surface Name
  ,                        !- Frame and Divider Name
  1,                       !- Multiplier
  2.74190122145512,        !- Starting X Coordinate {m}
  0.914634146341463,       !- Starting Z Coordinate {m}
  2.19153955217241,        !- Length {m}
  1.52439024390244;        !- Height {m}

Window,
  Window_sdr_1.unit1,      !- Name
  Exterior Window,         !- Construction Name
  Wall_sdr_1.unit1,        !- Building Surface Name
  ,                        !- Frame and Divider Name
  1,                       !- Multiplier
  1,                       !- Starting X Coordinate {m}
  0.914634146341463,       !- Starting Z Coordinate {m}
  2.19153955217241,        !- Length {m}
  1.52439024390244;        !- Height {m}

Window,
  Window_sdl_1.unit1,      !- Name
  Exterior Window,         !- Construction Name
  Wall_sdl_1.unit1,        !- Building Surface Name
  ,                        !- Frame and Divider Name
  1,                       !- Multiplier
  1,                       !- Starting X Coordinate {m}
  0.914634146341463,       !- Starting Z Coordinate {m}
  2.19153955217241,        !- Length {m}
  1.52439024390244;        !- Height {m}

BuildingSurface:Detailed,
  Floor_unit1,             !- Name
  Floor,                   !- Surface Type
  Interior Floor,          !- Construction Name
  living_unit1,            !- Zone Name
  Adiabatic,                    !- Outside Boundary Condition
  ,            !- Outside Boundary Condition Object
  NoSun,                   !- Sun Exposure
  NoWind,                  !- Wind Exposure
  0.0,                     !- View Factor to Ground
  4,                       !- Number of Vertices
  0,0,0.304878048780488,  !- X,Y,Z ==> Vertex 1 {m}
  0,9.09981820971244,0.304878048780488,  !- X,Y,Z ==> Vertex 2 {m}
  10.4398,9.09981820971244,0.304878048780488,  !- X,Y,Z ==> Vertex 3 {m}
  10.4398,0,0.304878048780488;  !- X,Y,Z ==> Vertex 4 {m}

BuildingSurface:Detailed,
  BGWall_upper_ldf,        !- Name
  Wall,                    !- Surface Type
  Basement Wall,           !- Construction Name
  living_unit1,            !- Zone Name
  Outdoors,                !- Outside Boundary Condition
  ,                        !- Outside Boundary Condition Object
  SunExposed,              !- Sun Exposure
  WindExposed,             !- Wind Exposure
  ,                        !- View Factor to Ground
  4,                       !- Number of Vertices
  0,0,0,  !- X,Y,Z ==> Vertex 1 {m}
  10.4398,0,0,  !- X,Y,Z ==> Vertex 2 {m}
  10.4398,0,0.304878048780488,  !- X,Y,Z ==> Vertex 3 {m}
  0,0,0.304878048780488;  !- X,Y,Z ==> Vertex 4 {m}

BuildingSurface:Detailed,
  BGWall_lower_ldf,        !- Name
  Wall,                    !- Surface Type
  Basement Wall,           !- Construction Name
  living_unit1,            !- Zone Name
  OtherSideCoefficients,   !- Outside Boundary Condition
  surfPropOthSdCoefGroundBoundaryTemp, !- Outside Boundary Condition Object
  NoSun,                   !- Sun Exposure
  NoWind,                  !- Wind Exposure
  ,                        !- View Factor to Ground
  4,                       !- Number of Vertices
  0,0,-2.13414634146341,  !- X,Y,Z ==> Vertex 1 {m}
  10.4398,0,-2.13414634146341,  !- X,Y,Z ==> Vertex 2 {m}
  10.4398,0,0,  !- X,Y,Z ==> Vertex 3 {m}
  0,0,0;  !- X,Y,Z ==> Vertex 4 {m}

BuildingSurface:Detailed,
  BGWall_upper_sdr,        !- Name
  Wall,                    !- Surface Type
  Basement Wall,           !- Construction Name
  living_unit1,            !- Zone Name
  Outdoors,                !- Outside Boundary Condition
  ,                        !- Outside Boundary Condition Object
  SunExposed,              !- Sun Exposure
  WindExposed,             !- Wind Exposure
  ,                        !- View Factor to Ground
  4,                       !- Number of Vertices
  10.4398,0,0,  !- X,Y,Z ==> Vertex 1 {m}
  10.4398,9.09981820971244,0,  !- X,Y,Z ==> Vertex 2 {m}
  10.4398,9.09981820971244,0.304878048780488,  !- X,Y,Z ==> Vertex 3 {m}
  10.4398,0,0.304878048780488;  !- X,Y,Z ==> Vertex 4 {m}

BuildingSurface:Detailed,
  BGWall_lower_sdr,        !- Name
  Wall,                    !- Surface Type
  Basement Wall,           !- Construction Name
  living_unit1,            !- Zone Name
  OtherSideCoefficients,   !- Outside Boundary Condition
  surfPropOthSdCoefGroundBoundaryTemp, !- Outside Boundary Condition Object
  NoSun,                   !- Sun Exposure
  NoWind,                  !- Wind Exposure
  ,                        !- View Factor to Ground
  4,                       !- Number of Vertices
  10.4398,0,-2.13414634146341,  !- X,Y,Z ==> Vertex 1 {m}
  10.4398,9.09981820971244,-2.13414634146341,  !- X,Y,Z ==> Vertex 2 {m}
  10.4398,9.09981820971244,0,  !- X,Y,Z ==> Vertex 3 {m}
  10.4398,0,0;  !- X,Y,Z ==> Vertex 4 {m}

BuildingSurface:Detailed,
  BGWall_upper_ldb,        !- Name
  Wall,                    !- Surface Type
  Basement Wall,           !- Construction Name
  living_unit1,            !- Zone Name
  Outdoors,                !- Outside Boundary Condition
  ,                        !- Outside Boundary Condition Object
  SunExposed,              !- Sun Exposure
  WindExposed,             !- Wind Exposure
  ,                        !- View Factor to Ground
  4,                       !- Number of Vertices
  10.4398,9.09981820971244,0,  !- X,Y,Z ==> Vertex 1 {m}
  0,9.09981820971244,0,  !- X,Y,Z ==> Vertex 2 {m}
  0,9.09981820971244,0.304878048780488,  !- X,Y,Z ==> Vertex 3 {m}
  10.4398,9.09981820971244,0.304878048780488;  !- X,Y,Z ==> Vertex 4 {m}

BuildingSurface:Detailed,
  BGWall_lower_ldb,        !- Name
  Wall,                    !- Surface Type
  Basement Wall,           !- Construction Name
  living_unit1,            !- Zone Name
  OtherSideCoefficients,   !- Outside Boundary Condition
  surfPropOthSdCoefGroundBoundaryTemp, !- Outside Boundary Condition Object
  NoSun,                   !- Sun Exposure
  NoWind,                  !- Wind Exposure
  ,                        !- View Factor to Ground
  4,                       !- Number of Vertices
  10.4398,9.09981820971244,-2.13414634146341,  !- X,Y,Z ==> Vertex 1 {m}
  0,9.09981820971244,-2.13414634146341,  !- X,Y,Z ==> Vertex 2 {m}
  0,9.09981820971244,0,  !- X,Y,Z ==> Vertex 3 {m}
  10.4398,9.09981820971244,0;  !- X,Y,Z ==> Vertex 4 {m}

BuildingSurface:Detailed,
  BGWall_upper_sdl,        !- Name
  Wall,                    !- Surface Type
  Basement Wall,           !- Construction Name
  living_unit1,            !- Zone Name
  Outdoors,                !- Outside Boundary Condition
  ,                        !- Outside Boundary Condition Object
  SunExposed,              !- Sun Exposure
  WindExposed,             !- Wind Exposure
  ,                        !- View Factor to Ground
  4,                       !- Number of Vertices
  0,9.09981820971244,0,  !- X,Y,Z ==> Vertex 1 {m}
  0,0,0,  !- X,Y,Z ==> Vertex 2 {m}
  0,0,0.304878048780488,  !- X,Y,Z ==> Vertex 3 {m}
  0,9.09981820971244,0.304878048780488;  !- X,Y,Z ==> Vertex 4 {m}

BuildingSurface:Detailed,
  BGWall_lower_sdl,        !- Name
  Wall,                    !- Surface Type
  Basement Wall,           !- Construction Name
  living_unit1,            !- Zone Name
  OtherSideCoefficients,   !- Outside Boundary Condition
  surfPropOthSdCoefGroundBoundaryTemp, !- Outside Boundary Condition Object
  NoSun,                   !- Sun Exposure
  NoWind,                  !- Wind Exposure
  ,                        !- View Factor to Ground
  4,                       !- Number of Vertices
  0,9.09981820971244,-2.13414634146341,  !- X,Y,Z ==> Vertex 1 {m}
  0,0,-2.13414634146341,  !- X,Y,Z ==> Vertex 2 {m}
  0,0,0,  !- X,Y,Z ==> Vertex 3 {m}
  0,9.09981820971244,0;  !- X,Y,Z ==> Vertex 4 {m}

BuildingSurface:Detailed,
  Extfloor_unit1,          !- Name
  Floor,                   !- Surface Type
  Exterior Floor,          !- Construction Name
  living_unit1,            !- Zone Name
  OtherSideCoefficients,   !- Outside Boundary Condition
  surfPropOthSdCoefGroundBoundaryTemp, !- Outside Boundary Condition Object
  NoSun,                   !- Sun Exposure
  NoWind,                  !- Wind Exposure
  0.0,                     !- View Factor to Ground
  4,                       !- Number of Vertices
  0,0,-2.13414634146341,  !- X,Y,Z ==> Vertex 1 {m}
  0,9.09981820971244,-2.13414634146341,  !- X,Y,Z ==> Vertex 2 {m}
  10.4398,9.09981820971244,-2.13414634146341,  !- X,Y,Z ==> Vertex 3 {m}
  10.4398,0,-2.13414634146341;  !- X,Y,Z ==> Vertex 4 {m}

Door,
  Door_ldb_unit1,          !- Name
  Exterior Door,           !- Construction Name
  Wall_ldb_1.unit1,        !- Building Surface Name
  1,                       !- Multiplier
  0.5,                     !- Starting X Coordinate {m}
  0.1,                       !- Starting Z Coordinate {m}
  1.74190122145513,        !- Length {m}
  2.13414634146341;        !- Height {m}

!-   ===========  ALL OBJECTS IN CLASS: SURFACECONVECTIONALGORITHM:INSIDE ===========

SurfaceConvectionAlgorithm:Inside,TARP;

!-   ===========  ALL OBJECTS IN CLASS: SCHEDULETYPELIMITS ===========

ScheduleTypeLimits,
  any number;              !- Name

ScheduleTypeLimits,
  On/Off,                  !- Name
  0,                       !- Lower Limit Value
  1,                       !- Upper Limit Value
  Discrete;                !- Numeric Type

ScheduleTypeLimits,
  control_type,            !- Name
  0,                       !- Lower Limit Value
  4,                       !- Upper Limit Value
  Discrete;                !- Numeric Type

ScheduleTypeLimits,
  fraction,                !- Name
  0,                       !- Lower Limit Value
  1,                       !- Upper Limit Value
  Continuous;              !- Numeric Type

ScheduleTypeLimits,
  Temperature,             !- Name
  -60,                     !- Lower Limit Value
  200,                     !- Upper Limit Value
  Continuous;              !- Numeric Type

!
! *** Occupancy and Lighting factors taken from NREL benchmark model ***
!

Schedule:Day:Hourly,
  OccupancyDay,            !- Name
  Fraction,                !- Schedule Type Limits Name
  1.00000,                 !- Hour 1
  1.00000,                 !- Hour 2
  1.00000,                 !- Hour 3
  1.00000,                 !- Hour 4
  1.00000,                 !- Hour 5
  1.00000,                 !- Hour 6
  1.00000,                 !- Hour 7
  0.88310,                 !- Hour 8
  0.40861,                 !- Hour 9
  0.24189,                 !- Hour 10
  0.24189,                 !- Hour 11
  0.24189,                 !- Hour 12
  0.24189,                 !- Hour 13
  0.24189,                 !- Hour 14
  0.24189,                 !- Hour 15
  0.24189,                 !- Hour 16
  0.29498,                 !- Hour 17
  0.55310,                 !- Hour 18
  0.89693,                 !- Hour 19
  0.89693,                 !- Hour 20
  0.89693,                 !- Hour 21
  1.00000,                 !- Hour 22
  1.00000,                 !- Hour 23
  1.00000;                 !- Hour 24

Schedule:Day:Hourly,
  LightingDay,             !- Name
  Fraction,                !- Schedule Type Limits Name
  0.0625,                  !- Hour 1
  0.0625,                  !- Hour 2
  0.0625,                  !- Hour 3
  0.0625,                  !- Hour 4
  0.1875,                  !- Hour 5
  0.390625,                !- Hour 6
  0.4375,                  !- Hour 7
  0.390625,                !- Hour 8
  0.171875,                !- Hour 9
  0.1171875,               !- Hour 10
  0.1171875,               !- Hour 11
  0.1171875,               !- Hour 12
  0.1171875,               !- Hour 13
  0.1171875,               !- Hour 14
  0.1171875,               !- Hour 15
  0.203125,                !- Hour 16
  0.4375,                  !- Hour 17
  0.609375,                !- Hour 18
  0.8203125,               !- Hour 19
  0.984375,                !- Hour 20
  1,                       !- Hour 21
  0.6875,                  !- Hour 22
  0.3828125,               !- Hour 23
  0.15625;                 !- Hour 24

!- Calculated based on occupancy sensor and motion
!- sensor savings from HMG analysis as detailed
!- in the kWhcalculation spreadsheet

Schedule:Day:Hourly,
  LightingDay_EELighting_OccSensors,  !- Name
  Fraction,                !- Schedule Type Limits Name
  0.065170403,             !- Hour 1
  0.065170403,             !- Hour 2
  0.065170403,             !- Hour 3
  0.065170403,             !- Hour 4
  0.195511208,             !- Hour 5
  0.407315016,             !- Hour 6
  0.456192818,             !- Hour 7
  0.407315016,             !- Hour 8
  0.179218607,             !- Hour 9
  0.122194505,             !- Hour 10
  0.122194505,             !- Hour 11
  0.122194505,             !- Hour 12
  0.122194505,             !- Hour 13
  0.122194505,             !- Hour 14
  0.122194505,             !- Hour 15
  0.211803808,             !- Hour 16
  0.456192818,             !- Hour 17
  0.635411425,             !- Hour 18
  0.855361533,             !- Hour 19
  0.947933128,             !- Hour 20
  0.947933128,             !- Hour 21
  0.716874428,             !- Hour 22
  0.399168715,             !- Hour 23
  0.162926006;             !- Hour 24

Schedule:Day:Hourly,
  LightingDay_EELighting,  !- Name
  Fraction,                !- Schedule Type Limits Name
  0.06875,                 !- Hour 1
  0.06875,                 !- Hour 2
  0.06875,                 !- Hour 3
  0.06875,                 !- Hour 4
  0.20625,                 !- Hour 5
  0.4296875,               !- Hour 6
  0.48125,                 !- Hour 7
  0.4296875,               !- Hour 8
  0.1890625,               !- Hour 9
  0.12890625,              !- Hour 10
  0.12890625,              !- Hour 11
  0.12890625,              !- Hour 12
  0.12890625,              !- Hour 13
  0.12890625,              !- Hour 14
  0.12890625,              !- Hour 15
  0.2234375,               !- Hour 16
  0.48125,                 !- Hour 17
  0.6703125,               !- Hour 18
  0.90234375,              !- Hour 19
  1,                       !- Hour 20
  1,                       !- Hour 21
  0.75625,                 !- Hour 22
  0.42109375,              !- Hour 23
  0.171875;                !- Hour 24

Schedule:Day:Hourly,
  MiscPlugLoadDay,         !- Name
  Fraction,                !- Schedule Type Limits Name
  0.607490272373541,       !- Hour 1
  0.559338521400778,       !- Hour 2
  0.552853437094682,       !- Hour 3
  0.545071335927367,       !- Hour 4
  0.524481193255512,       !- Hour 5
  0.585278858625162,       !- Hour 6
  0.676232166018158,       !- Hour 7
  0.718547341115435,       !- Hour 8
  0.607490272373541,       !- Hour 9
  0.517023346303502,       !- Hour 10
  0.529182879377432,       !- Hour 11
  0.529345006485084,       !- Hour 12
  0.520428015564202,       !- Hour 13
  0.538424124513619,       !- Hour 14
  0.568741893644617,       !- Hour 15
  0.600356679636835,       !- Hour 16
  0.71011673151751,        !- Hour 17
  0.862678339818418,       !- Hour 18
  0.936608300907912,       !- Hour 19
  0.966763942931258,       !- Hour 20
  1,                       !- Hour 21
  0.976653696498055,       !- Hour 22
  0.845168612191959,       !- Hour 23
  0.73443579766537;        !- Hour 24

Schedule:Week:Compact,
  MiscPlugLoadWeek,        !- Name
  For: AllDays,            !- DayType List 1
  MiscPlugLoadDay;         !- Schedule:Day Name 1

Schedule:Week:Compact,
  OccupancyWeek,           !- Name
  For: AllDays,                 !- DayType List 1
  OccupancyDay;            !- Schedule:Day Name 1

Schedule:Week:Compact,
  LightingProfileWeek,     !- Name
  For: AllDays,            !- DayType List 1
  LightingDay;             !- Schedule:Day Name 1

Schedule:Week:Compact,
  LightingProfileWeek_EELighting,  !- Name
  For: AllDays,            !- DayType List 1
  LightingDay_EELighting;  !- Schedule:Day Name 1

Schedule:Week:Compact,
  LightingProfileWeek_EELighting_interior_controls,  !- Name
  For: AllDays,            !- DayType List 1
  LightingDay_EELighting_OccSensors;  !- Schedule:Day Name 1

!-   ===========  ALL OBJECTS IN CLASS: SCHEDULE:YEAR ===========

Schedule:Year,
  Occupancy,               !- Name
  Fraction,                !- Schedule Type Limits Name
  OccupancyWeek,           !- Schedule:Week Name 1
  1,                       !- Start Month 1
  1,                       !- Start Day 1
  12,                      !- End Month 1
  31;                      !- End Day 1

Schedule:Year,
  InteriorLighting,        !- Name
  Fraction,                !- Schedule Type Limits Name
  LightingProfileWeek,     !- Schedule:Week Name 1
  1,                       !- Start Month 1
  1,                       !- Start Day 1
  12,                      !- End Month 1
  31;                      !- End Day 1

Schedule:Year,
  InteriorLightingHE,      !- Name
  Fraction,                !- Schedule Type Limits Name
  LightingProfileWeek_EELighting,  !- Schedule:Week Name 1
  1,                       !- Start Month 1
  1,                       !- Start Day 1
  12,                      !- End Month 1
  31;                      !- End Day 1

Schedule:Year,
  MiscPlugLoad,            !- Name
  Fraction,                !- Schedule Type Limits Name
  MiscPlugLoadWeek,        !- Schedule:Week Name 1
  1,                       !- Start Month 1
  1,                       !- Start Day 1
  12,                      !- End Month 1
  31;                      !- End Day 1

!-   ===========  ALL OBJECTS IN CLASS: SCHEDULE:COMPACT ===========

Schedule:Compact,
  activity_sch,            !- Name
  any number,              !- Schedule Type Limits Name
  Through: 12/31,          !- Field 1
  For: AllDays,            !- Field 2
  Until: 24:00,117.28;     !- Field 3

Schedule:Compact,
  inf_sch,                 !- Name
  any number,              !- Schedule Type Limits Name
  Through: 12/31,          !- Field 1
  For: AllDays,            !- Field 2
  Until: 24:00,1;          !- Field 3

Schedule:Compact,
  zone_control_type,       !- Name
  control_type,            !- Schedule Type Limits Name
  Through: 12/31,          !- Field 1
  For: AllDays,            !- Field 2
  Until 24:00,4;           !- Field 3

!- New shading schedules per IECC 2012...ref Bob email dtd. 3rd November...

Schedule:Compact,
  shading_2012iecc,        !- Name
  fraction,                !- Schedule Type Limits Name
  Through: 12/31,          !- Field 1
  For: AllDays,            !- Field 2
  Until 24:00,0;           !- Field 3

!- Material properties for the consolidated insulation-framing objects defined in consolidated.materials.template...
!- Sheathing insulation and framing material: R0

Material,
  sheathing_consol_layer,  !- Name
  Rough,                   !- Roughness
  0.0127,                  !- Thickness {m}
  0.0940184,               !- Conductivity {W/m-K}
  685.008,                 !- Density {kg/m3}
  1172.332;                !- Specific Heat {J/kg-K}

!- Ceiling insulation and framing material: R49; Insulation Grade: 1;

Material,
  ceil_consol_layer,       !- Name
  Rough,                   !- Roughness
  0.300206234336168,       !- Thickness {m}
  0.0617176,               !- Conductivity {W/m-K}
  41.9286,                 !- Density {kg/m3}
  776.25126;               !- Specific Heat {J/kg-K}

!- floor insulation and framing material: R30; Insulation Grade: 1;

Material,
  floor_consol_layer,      !- Name
  Rough,                   !- Roughness
  0.23495,                 !- Thickness {m}
  0.0515515,               !- Conductivity {W/m-K}
  55.074,                  !- Density {kg/m3}
  916.9311;                !- Specific Heat {J/kg-K}

!- bsmtwall insulation and framing material: R19

Material,
  bsmtwall_consol_layer,   !- Name
  Rough,                   !- Roughness
  0.2397,                  !- Thickness {m}
  0.0601465789473684,      !- Conductivity {W/m-K}
  120.801,                 !- Density {kg/m3}
  1036.25775;              !- Specific Heat {J/kg-K}

!- crawlwall insulation and framing material: R19

Material,
  crawlwall_consol_layer,  !- Name
  Rough,                   !- Roughness
  0.1397,                  !- Thickness {m}
  0.0601465789473684,      !- Conductivity {W/m-K}
  120.801,                 !- Density {kg/m3}
  1036.25775;              !- Specific Heat {J/kg-K}

!- Exterior wall consolidated layer properties based on construction...
!- Default is wood-framed wall
!- Assembly: Wood_R21_R0_no_5.5_na_16_Sh_n_G; Framing Fraction: 0.25; Insulation Grade: 1;

Construction,
  Exterior Wall,           !- Name
  syn_stucco,              !- Outside Layer
  sheathing_consol_layer,  !- Layer 2
  OSB_7/16in,              !- Layer 3
  wall_consol_layer,       !- Layer 4
  Drywall_1/2in;           !- Layer 5

!- wall insulation and framing material: R21

Material,
  wall_consol_layer,       !- Name
  Rough,                   !- Roughness
  0.2397,                  !- Thickness {m}
  0.057165,                !- Conductivity {W/m-K}
  120.801,                 !- Density {kg/m3}
  1036.25775;              !- Specific Heat {J/kg-K}

!- Some material properties updated using NREL Benchmark model. Some other materials added directly from the benchmark model.
!-   ===========  ALL OBJECTS IN CLASS: MATERIAL ===========

Material,
  Asphalt_shingle,         !- Name
  MediumRough,             !- Roughness
  6.33985285170672E-03,    !- Thickness {m}
  0.08186,                 !- Conductivity {W/m-K}
  1121.2917044623,         !- Density {kg/m3}
  1255.20000949809,        !- Specific Heat {J/kg-K}
  ,                        !- Thermal Absorptance
  0.75;                    !- Solar Absorptance

Material,
  cement_stucco,           !- Name