Version,
    8.6;                     !- Version Identifier

!-   ===========  ALL OBJECTS IN CLASS: GLOBALGEOMETRYRULES ===========

GlobalGeometryRules,
    LowerLeftCorner,         !- Starting Vertex Position
    Counterclockwise,        !- Vertex Entry Direction
    Relative;                !- Coordinate System


 BuildingSurface:Detailed,
    Inter zone floor 1,  !- Name
    Floor,  !- Surface Type
    Interior Floor,  !- Construction Name
    living_unit1,  !- Zone Name
    Adiabatic,  !- Outside Boundary Condition
    ,  !- Outside Boundary Condition Object
    NoSun,  !- Sun Exposure
    NoWind,  !- Wind Exposure
    0.0,  !- View Factor to Ground
    4,  !- Number of Vertices
    0,0,2.74390243902439,0,9.09981820971244,2.74390243902439,12.1330909462833,9.09981820971244,2.74390243902439,12.1330909462833,0,2.74390243902439;


  BuildingSurface:Detailed,
    ceiling_unit1,  !- Name
    Ceiling,  !- Surface Type
    Interior Ceiling,  !- Construction Name
    living_unit1,  !- Zone Name
    Zone,  !- Outside Boundary Condition
    attic_unit1,  !- Outside Boundary Condition Object
    NoSun,  !- Sun Exposure
    NoWind,  !- Wind Exposure
    0.0,  !- View Factor to Ground
    4,  !- Number of Vertices
    0,0,5.33536585365854,12.1330909462833,0,5.33536585365854,12.1330909462833,9.09981820971244,5.33536585365854,0,9.09981820971244,5.33536585365854;


!-   ===========  ALL OBJECTS IN CLASS: ZONE ===========

  Zone,
    living_unit1,  !- Name
    0.0,  !- Direction of Relative North {deg}
    0.0,  !- X Origin {m}
    0.0,  !- Y Origin {m}
    0.0,  !- Z Origin {m}
    ,  	  !- Type
    1;    !- Multiplier

  Zone,
    attic_unit1,  !- Name
    0.0,  !- Direction of Relative North {deg}
    0.0,  !- X Origin {m}
    0.0,  !- Y Origin {m}
    0.0,  !- Z Origin {m}
    ,     !- Type
    1;    !- Multiplier


  Zone,
    crawlspace_unit1,  !- Name
    0.0,  !- Direction of Relative North {deg}
    0.0,  !- X Origin {m}
    0.0,  !- Y Origin {m}
    0.0,  !- Z Origin {m}
    ,     !- Type
    1;    !- Multiplier


  BuildingSurface:Detailed,
    Roof_front_unit1,  !- Name
    Roof,  !- Surface Type
    Exterior Roof,  !- Construction Name
    attic_unit1,  !- Zone Name
    Outdoors,  !- Outside Boundary Condition
    ,  !- Outside Boundary Condition Object
    SunExposed,  !- Sun Exposure
    WindExposed,  !- Wind Exposure
    0.0,  !- View Factor to Ground
    4,  !- Number of Vertices
    0,0,5.33536585365854,12.1330909462833,0,5.33536585365854,12.1330909462833,4.54990910485622,6.6995631975537,0,4.54990910485622,6.6995631975537;

  BuildingSurface:Detailed,
    Roof_back_unit1,  !- Name
    Roof,  !- Surface Type
    Exterior Roof,  !- Construction Name
    attic_unit1,  !- Zone Name
    Outdoors,  !- Outside Boundary Condition
    ,  !- Outside Boundary Condition Object
    SunExposed,  !- Sun Exposure
    WindExposed,  !- Wind Exposure
    0.0,  !- View Factor to Ground
    4,  !- Number of Vertices
    12.1330909462833,9.09981820971244,5.33536585365854,0,9.09981820971244,5.33536585365854,0,4.54990910485622,6.6995631975537,12.1330909462833,4.54990910485622,6.6995631975537;

  BuildingSurface:Detailed,
    Roof_right_unit1,  !- Name
    Wall,  !- Surface Type
    Gable_end,  !- Construction Name
    attic_unit1,  !- Zone Name
    Outdoors,  !- Outside Boundary Condition
    ,  !- Outside Boundary Condition Object
    SunExposed,  !- Sun Exposure
    WindExposed,  !- Wind Exposure
    ,  !- View Factor to Ground
    3,  !- Number of Vertices
    12.1330909462833,0,5.33536585365854,12.1330909462833,9.09981820971244,5.33536585365854,12.1330909462833,4.54990910485622,6.6995631975537;

  BuildingSurface:Detailed,
    Roof_left_unit1,  !- Name
    Wall,  !- Surface Type
    Gable_end,  !- Construction Name
    attic_unit1,  !- Zone Name
    Outdoors,  !- Outside Boundary Condition
    ,  !- Outside Boundary Condition Object
    SunExposed,  !- Sun Exposure
    WindExposed,  !- Wind Exposure
    ,  !- View Factor to Ground
    3,  !- Number of Vertices
    0,9.09981820971244,5.33536585365854,0,0,5.33536585365854,0,4.54990910485622,6.6995631975537;


BuildingSurface:Detailed,
    Wall_ldf_1.unit1,                   !- Name
    Wall,                    !- Surface Type
    Exterior Wall,           !- Construction Name
    living_unit1,                  !- Zone Name
    Outdoors,                !- Outside Boundary Condition
    ,                        !- Outside Boundary Condition Object
    SunExposed,              !- Sun Exposure
    WindExposed,             !- Wind Exposure
    ,                        !- View Factor to Ground
    4,                       !- Number of Vertices
    0,0,0.152439024390244,12.1330909462833,0,0.152439024390244,12.1330909462833,0,2.74390243902439,0,0,2.74390243902439;

BuildingSurface:Detailed,
    Wall_sdr_1.unit1,                   !- Name
    Wall,                    !- Surface Type
    Exterior Wall,           !- Construction Name
    living_unit1,                  !- Zone Name
    Outdoors,                !- Outside Boundary Condition
    ,                        !- Outside Boundary Condition Object
    SunExposed,              !- Sun Exposure
    WindExposed,             !- Wind Exposure
    ,                        !- View Factor to Ground
    4,                       !- Number of Vertices
    12.1330909462833,0,0.152439024390244,12.1330909462833,9.09981820971244,0.152439024390244,12.1330909462833,9.09981820971244,2.74390243902439,12.1330909462833,0,2.74390243902439;

BuildingSurface:Detailed,
    Wall_ldb_1.unit1,                   !- Name
    Wall,                    !- Surface Type
    Exterior Wall,           !- Construction Name
    living_unit1,                  !- Zone Name
    Outdoors,                !- Outside Boundary Condition
    ,                        !- Outside Boundary Condition Object
    SunExposed,              !- Sun Exposure
    WindExposed,             !- Wind Exposure
    ,                        !- View Factor to Ground
    4,                       !- Number of Vertices
    12.1330909462833,9.09981820971244,0.152439024390244,0,9.09981820971244,0.152439024390244,0,9.09981820971244,2.74390243902439,12.1330909462833,9.09981820971244,2.74390243902439;

BuildingSurface:Detailed,
    Wall_sdl_1.unit1,                   !- Name
    Wall,                    !- Surface Type
    Exterior Wall,           !- Construction Name
    living_unit1,                  !- Zone Name
    Outdoors,                !- Outside Boundary Condition
    ,                        !- Outside Boundary Condition Object
    SunExposed,              !- Sun Exposure
    WindExposed,             !- Wind Exposure
    ,                        !- View Factor to Ground
    4,                       !- Number of Vertices
    0,9.09981820971244,0.152439024390244,0,0,0.152439024390244,0,0,2.74390243902439,0,9.09981820971244,2.74390243902439;

Window,
    Window_ldf_1.unit1,	!- Name
    Exterior Window,  !- Construction Name
    Wall_ldf_1.unit1,	!- Building Surface Name
    Shades,	!- Shading Control Name
    ,		!- Frame and divider Name
    1,		!- Multiplier
    1,	!- Starting X coordinate
    0.914634146341463,	!- Starting Z coordinate
    2.70719591738945,	!- Length
    1.52439024390244;	!- Height

Window,
    Window_ldb_1.unit1,	!- Name
    Exterior Window,  !- Construction Name
    Wall_ldb_1.unit1,	!- Building Surface Name
    Shades,	!- Shading Control Name
    ,		!- Frame and divider Name
    1,		!- Multiplier
    2.74190122145512,	!- Starting X coordinate
    0.914634146341463,	!- Starting Z coordinate
    2.70719591738945,	!- Length
    1.52439024390244;	!- Height

Window,
    Window_sdr_1.unit1,	!- Name
    Exterior Window,  !- Construction Name
    Wall_sdr_1.unit1,	!- Building Surface Name
    Shades,	!- Shading Control Name
    ,		!- Frame and divider Name
    1,		!- Multiplier
    1,	!- Starting X coordinate
    0.914634146341463,	!- Starting Z coordinate
    2.70719591738945,	!- Length
    1.52439024390244;	!- Height

Shading:Overhang,
    Overhang_sdr_1.unit1, 	!- Name
    Window_sdr_1.unit1,	!- Window or door name
    0,			!- Height from window/door
    90,			!- Tilt angle from window/door
    0,			!- Left extension from window/door width
    0,			!- Right extension from window/door width
    0.0152439024390244;	!- Depth

Window,
    Window_sdl_1.unit1,	!- Name
    Exterior Window,  !- Construction Name
    Wall_sdl_1.unit1,	!- Building Surface Name
    Shades,	!- Shading Control Name
    ,		!- Frame and divider Name
    1,		!- Multiplier
    1,	!- Starting X coordinate
    0.914634146341463,	!- Starting Z coordinate
    2.70719591738945,	!- Length
    1.52439024390244;	!- Height


BuildingSurface:Detailed,
    Wall_ldf_2.unit1,                   !- Name
    Wall,                    !- Surface Type
    Exterior Wall,           !- Construction Name
    living_unit1,                  !- Zone Name
    Outdoors,                !- Outside Boundary Condition
    ,                        !- Outside Boundary Condition Object
    SunExposed,              !- Sun Exposure
    WindExposed,             !- Wind Exposure
    ,                        !- View Factor to Ground
    4,                       !- Number of Vertices
    0,0,2.74390243902439,12.1330909462833,0,2.74390243902439,12.1330909462833,0,5.33536585365854,0,0,5.33536585365854;

BuildingSurface:Detailed,
    Wall_sdr_2.unit1,                   !- Name
    Wall,                    !- Surface Type
    Exterior Wall,           !- Construction Name
    living_unit1,                  !- Zone Name
    Outdoors,                !- Outside Boundary Condition
    ,                        !- Outside Boundary Condition Object
    SunExposed,              !- Sun Exposure
    WindExposed,             !- Wind Exposure
    ,                        !- View Factor to Ground
    4,                       !- Number of Vertices
    12.1330909462833,0,2.74390243902439,12.1330909462833,9.09981820971244,2.74390243902439,12.1330909462833,9.09981820971244,5.33536585365854,12.1330909462833,0,5.33536585365854;

BuildingSurface:Detailed,
    Wall_ldb_2.unit1,                   !- Name
    Wall,                    !- Surface Type
    Exterior Wall,           !- Construction Name
    living_unit1,                  !- Zone Name
    Outdoors,                !- Outside Boundary Condition
    ,                        !- Outside Boundary Condition Object
    SunExposed,              !- Sun Exposure
    WindExposed,             !- Wind Exposure
    ,                        !- View Factor to Ground
    4,                       !- Number of Vertices
    12.1330909462833,9.09981820971244,2.74390243902439,0,9.09981820971244,2.74390243902439,0,9.09981820971244,5.33536585365854,12.1330909462833,9.09981820971244,5.33536585365854;

BuildingSurface:Detailed,
    Wall_sdl_2.unit1,                   !- Name
    Wall,                    !- Surface Type
    Exterior Wall,           !- Construction Name
    living_unit1,                  !- Zone Name
    Outdoors,                !- Outside Boundary Condition
    ,                        !- Outside Boundary Condition Object
    SunExposed,              !- Sun Exposure
    WindExposed,             !- Wind Exposure
    ,                        !- View Factor to Ground
    4,                       !- Number of Vertices
    0,9.09981820971244,2.74390243902439,0,0,2.74390243902439,0,0,5.33536585365854,0,9.09981820971244,5.33536585365854;

Window,
    Window_ldf_2.unit1,	!- Name
    Exterior Window,  !- Construction Name
    Wall_ldf_2.unit1,	!- Building Surface Name
    Shades,	!- Shading Control Name
    ,		!- Frame and divider Name
    1,		!- Multiplier
    1,	!- Starting X coordinate
    0.914634146341463,	!- Starting Z coordinate
    2.70719591738945,	!- Length
    1.52439024390244;	!- Height

Window,
    Window_ldb_2.unit1,	!- Name
    Exterior Window,  !- Construction Name
    Wall_ldb_2.unit1,	!- Building Surface Name
    Shades,	!- Shading Control Name
    ,		!- Frame and divider Name
    1,		!- Multiplier
    2.74190122145512,	!- Starting X coordinate
    0.914634146341463,	!- Starting Z coordinate
    2.70719591738945,	!- Length
    1.52439024390244;	!- Height

Window,
    Window_sdr_2.unit1,	!- Name
    Exterior Window,  !- Construction Name
    Wall_sdr_2.unit1,	!- Building Surface Name
    Shades,	!- Shading Control Name
    ,		!- Frame and divider Name
    1,		!- Multiplier
    1,	!- Starting X coordinate
    0.914634146341463,	!- Starting Z coordinate
    2.70719591738945,	!- Length
    1.52439024390244;	!- Height

Shading:Overhang,
    Overhang_sdr_2.unit1, 	!- Name
    Window_sdr_2.unit1,	!- Window or door name
    0,			!- Height from window/door
    90,			!- Tilt angle from window/door
    0,			!- Left extension from window/door width
    0,			!- Right extension from window/door width
    0.0152439024390244;	!- Depth

Window,
    Window_sdl_2.unit1,	!- Name
    Exterior Window,  !- Construction Name
    Wall_sdl_2.unit1,	!- Building Surface Name
    Shades,	!- Shading Control Name
    ,		!- Frame and divider Name
    1,		!- Multiplier
    1,	!- Starting X coordinate
    0.914634146341463,	!- Starting Z coordinate
    2.70719591738945,	!- Length
    1.52439024390244;	!- Height


BuildingSurface:Detailed,
    Floor_unit1,  !- Name
    Floor,  !- Surface Type
    Exterior Floor,  !- Construction Name
    living_unit1,  !- Zone Name
    Zone,  !- Outside Boundary Condition
    crawlspace_unit1,  !- Outside Boundary Condition Object
    NoSun,  !- Sun Exposure
    NoWind,  !- Wind Exposure
    0.0,  !- View Factor to Ground
    4,  !- Number of Vertices
    0,0,0.152439024390244,0,9.09981820971244,0.152439024390244,12.1330909462833,9.09981820971244,0.152439024390244,12.1330909462833,0,0.152439024390244;


BuildingSurface:Detailed,
    BGWall_upper_ldf,                  !- Name
    Wall,                    !- Surface Type
    Crawl Wall,           !- Construction Name
    crawlspace_unit1,              !- Zone Name
    Outdoors,                !- Outside Boundary Condition
    ,                        !- Outside Boundary Condition Object
    SunExposed,              !- Sun Exposure
    WindExposed,             !- Wind Exposure
    ,                        !- View Factor to Ground
    4,                       !- Number of Vertices
    0,0,0,12.1330909462833,0,0,12.1330909462833,0,0.152439024390244,0,0,0.152439024390244;

BuildingSurface:Detailed,
    BGWall_lower_ldf,                  !- Name
    Wall,                    !- Surface Type
    Crawl Wall,           !- Construction Name
    crawlspace_unit1,              !- Zone Name
    Ground,                !- Outside Boundary Condition
    ,                        !- Outside Boundary Condition Object
    NoSun,  		     !- Sun Exposure
    NoWind,       	     !- Wind Exposure
    ,                        !- View Factor to Ground
    4,                       !- Number of Vertices
    0,0,-0.457317073170732,12.1330909462833,0,-0.457317073170732,12.1330909462833,0,0,0,0,0;

BuildingSurface:Detailed,
    BGWall_upper_sdr,                  !- Name
    Wall,                    !- Surface Type
    Crawl Wall,           !- Construction Name
    crawlspace_unit1,              !- Zone Name
    Outdoors,                !- Outside Boundary Condition
    ,                        !- Outside Boundary Condition Object
    SunExposed,              !- Sun Exposure
    WindExposed,             !- Wind Exposure
    ,                        !- View Factor to Ground
    4,                       !- Number of Vertices
    12.1330909462833,0,0,12.1330909462833,9.09981820971244,0,12.1330909462833,9.09981820971244,0.152439024390244,12.1330909462833,0,0.152439024390244;

BuildingSurface:Detailed,
    BGWall_lower_sdr,                  !- Name
    Wall,                    !- Surface Type
    Crawl Wall,           !- Construction Name
    crawlspace_unit1,              !- Zone Name
    Ground,                !- Outside Boundary Condition
    ,                        !- Outside Boundary Condition Object
    NoSun,  !- Sun Exposure
    NoWind,  !- Wind Exposure
    ,                        !- View Factor to Ground
    4,                       !- Number of Vertices
    12.1330909462833,0,-0.457317073170732,12.1330909462833,9.09981820971244,-0.457317073170732,12.1330909462833,9.09981820971244,0,12.1330909462833,0,0;

BuildingSurface:Detailed,
    BGWall_upper_ldb,                  !- Name
    Wall,                    !- Surface Type
    Crawl Wall,           !- Construction Name
    crawlspace_unit1,              !- Zone Name
    Outdoors,                !- Outside Boundary Condition
    ,                        !- Outside Boundary Condition Object
    SunExposed,              !- Sun Exposure
    WindExposed,             !- Wind Exposure
    ,                        !- View Factor to Ground
    4,                       !- Number of Vertices
    12.1330909462833,9.09981820971244,0,0,9.09981820971244,0,0,9.09981820971244,0.152439024390244,12.1330909462833,9.09981820971244,0.152439024390244;

BuildingSurface:Detailed,
    BGWall_lower_ldb,                  !- Name
    Wall,                    !- Surface Type
    Crawl Wall,           !- Construction Name
    crawlspace_unit1,              !- Zone Name
    Ground,                !- Outside Boundary Condition
    ,                        !- Outside Boundary Condition Object
    NoSun,  !- Sun Exposure
    NoWind,  !- Wind Exposure
    ,                        !- View Factor to Ground
    4,                       !- Number of Vertices
    12.1330909462833,9.09981820971244,-0.457317073170732,0,9.09981820971244,-0.457317073170732,0,9.09981820971244,0,12.1330909462833,9.09981820971244,0;

BuildingSurface:Detailed,
    BGWall_upper_sdl,                  !- Name
    Wall,                    !- Surface Type
    Crawl Wall,           !- Construction Name
    crawlspace_unit1,              !- Zone Name
    Outdoors,                !- Outside Boundary Condition
    ,                        !- Outside Boundary Condition Object
    SunExposed,              !- Sun Exposure
    WindExposed,             !- Wind Exposure
    ,                        !- View Factor to Ground
    4,                       !- Number of Vertices
    0,9.09981820971244,0,0,0,0,0,0,0.152439024390244,0,9.09981820971244,0.152439024390244;

BuildingSurface:Detailed,
    BGWall_lower_sdl,                  !- Name
    Wall,                    !- Surface Type
    Crawl Wall,           !- Construction Name
    crawlspace_unit1,              !- Zone Name
    Ground,                !- Outside Boundary Condition
    ,                        !- Outside Boundary Condition Object
    NoSun,  !- Sun Exposure
    NoWind,  !- Wind Exposure
    ,                        !- View Factor to Ground
    4,                       !- Number of Vertices
    0,9.09981820971244,-0.457317073170732,0,0,-0.457317073170732,0,0,0,0,9.09981820971244,0;


  BuildingSurface:Detailed,
    Extfloor_unit1,  !- Name
    Floor,  !- Surface Type
    Interior Floor,  !- Construction Name
    crawlspace_unit1,  !- Zone Name
    Ground,  !- Outside Boundary Condition
    ,  !- Outside Boundary Condition Object
    NoSun,  !- Sun Exposure
    NoWind,  !- Wind Exposure
    0.0,  !- View Factor to Ground
    4,  !- Number of Vertices
    0,0,-0.457317073170732,0,9.09981820971244,-0.457317073170732,12.1330909462833,9.09981820971244,-0.457317073170732,12.1330909462833,0,-0.457317073170732;


Door,
    Door_ldb_unit1,	!- Name
    Exterior Door,   	!- Construction Name
    Wall_ldb_1.unit1,	!- Building Surface Name
    1,		!- Multiplier
    0.5,	!- Starting X coordinate
    0,	!- Starting Z coordinate
    1.74190122145513,	!- Length
    2.13414634146341;	!- Height




!- Consolidated wall and floor materials from consolidated.materials.template..

!$Id: consolidated.materials.template,v 1.5 2019/02/07 17:04:56 d3a061 Exp d3a061 $
!$Log: consolidated.materials.template,v $
!Revision 1.5  2019/02/07 17:04:56  d3a061
!Eliminated default setting for 'code'.  Commented out the semi-cond specs.
!
!Revision 1.4  2018/05/17 21:42:40  d3a061
!Ran dos2unix on it.
!
!Revision 1.3  2017/04/12 22:42:05  mend509
!Added the 2018 IECC hash
!
!Revision 1.2  2017/04/12 21:49:58  d3a061
!Changes to avoid deprecated Perlisms.
!
!Revision 1.1  2017/03/07 22:15:07  d3a061
!Initial revision
!
!Revision 1.8  2015/06/27 00:15:04  mend509
!Revised insulation quality calculation
!
!Revision 1.7  2015/06/04 03:10:16  d3l143
!*** empty log message ***
!
!Revision 1.6  2015/06/01 22:09:59  d3l143
!added wall insulation degrdation factor for FOA.
!
!Revision 1.5  2015/05/21 16:52:14  mend509
!Archive after determination analysis
!

!Revision 1.4  2015/03/30 22:41:58  mend509
!Wall framing fraction fix didn't work; trying again
!
!Revision 1.3  2015/03/30 22:40:17  mend509
!$framing_fraction for walls defaults to 16 in OC but can take value though the parm file now
!
!Revision 1.2  2014/05/19 23:06:16  mend509
!Copied 2012 IECC envelope requirements into a 2015 hash
!
!Revision 1.1  2014/05/16 23:25:45  mend509
!Initial revision
!
!Revision 1.2  2013/03/29 17:30:59  mend509
!Archived after generating first set of masonry input files
!
!Revision 1.1  2013/03/24 05:34:54  mend509
!Initial revision
!








!-   ===========  ALL OBJECTS IN CLASS: SIMULATIONCONTROL ===========

SimulationControl,
    Yes,                     !- Do Zone Sizing Calculation
    Yes,                     !- Do System Sizing Calculation
    No,                      !- Do Plant Sizing Calculation
    Yes,                     !- Run Simulation for Sizing Periods
    Yes;                     !- Run Simulation for Weather File Run Periods

!-   ===========  ALL OBJECTS IN CLASS: BUILDING ===========

Building,
    SF+CZ2BWH+USA_AZ_Phoenix-Sky.Harbor.Intl.AP.722780+gasfurnace+crawlspace+IECC_2018,                	!- Name
    0,      	!- North Axis {deg}
    Suburbs,                 	!- Terrain
    0.04,                    	!- Loads Convergence Tolerance Value
    0.4,                     	!- Temperature Convergence Tolerance Value {deltaC}
    FullExterior, 		!- Solar Distribution
    25,                      	!- Maximum Number of Warmup Days
    6;                      	!- Minimum Number of Warmup Days

!-   ===========  ALL OBJECTS IN CLASS: SURFACECONVECTIONALGORITHM:INSIDE ===========

SurfaceConvectionAlgorithm:Inside,
    TARP;                  !- Algorithm

!-   ===========  ALL OBJECTS IN CLASS: TIMESTEP ===========

Timestep,
    4;                       !- Number of Timesteps per Hour

!-   ===========  ALL OBJECTS IN CLASS: SITE:LOCATION ===========

! Weather_file = USA_AZ_Phoenix-Sky.Harbor.Intl.AP.722780_TMY3.epw;
! Using the stat2idf and the ddy2idf script...
! Water mains temperature correlation object created by:


! Water mains temperature object created by:
! /projects/bigsim/resstd/vm/bin/stat2idf /projects/bigsim/weather/EnergyPlus/tmy3.new/all/USA_AZ_Phoenix-Sky.Harbor.Intl.AP.722780_TMY3.stat
!
Site:WaterMainsTemperature,
Correlation,	!- Calculation method
, 		!- Temperature schedule name
23.775, !- Annual average outdoor air temperature {C}
23.9;	!- Maximum difference in monthly average outdoor air temperatures {C}


! Location and design-day objects created by:
! Site:Location and design-day objects created by:
! /projects/bigsim/bin/ddy2idf /projects/bigsim/weather/EnergyPlus/tmy3.new/all/USA_AZ_Phoenix-Sky.Harbor.Intl.AP.722780_TMY3.ddy
!
Site:Location,
  Phoenix Sky Harbor Intl Ap_AZ_USA Design_Conditions,     !- Site:Location Name
      33.45,     !- Latitude {N+ S-}
    -111.98,     !- Longitude {W- E+}
      -7.00,     !- Time Zone Relative to GMT {GMT+/-}
     337.00;     !- Elevation {m}

SizingPeriod:DesignDay,
  Phoenix Sky Harbor Intl Ap Ann Htg 99.6% Condns DB,     !- Name
         12,      !- Month
         21,      !- Day of Month
  WinterDesignDay,!- Day Type
        3.7,      !- Maximum Dry-Bulb Temperature {C}
        0.0,      !- Daily Dry-Bulb Temperature Range {C}
 DefaultMultipliers, !- Dry-Bulb Temperature Range Modifier Type
           ,      !- Dry-Bulb Temperature Range Modifier Schedule Name
    Wetbulb,      !- Humidity Condition Type
        3.7,      !- Wetbulb at Maximum Dry-Bulb {C}
           ,      !- Humidity Indicating Day Schedule Name
           ,      !- Humidity Ratio at Maximum Dry-Bulb {kgWater/kgDryAir}
           ,      !- Enthalpy at Maximum Dry-Bulb {J/kg}
           ,      !- Daily WetBulb Temperature Range {deltaC}
     97342.,      !- Barometric Pressure {Pa}
        1.7,      !- Wind Speed {m/s} design conditions vs. traditional 6.71 m/s (15 mph)
        100,      !- Wind Direction {Degrees; N=0, S=180}
         No,      !- Rain {Yes/No}
         No,      !- Snow on ground {Yes/No}
         No,      !- Daylight Savings Time Indicator
  ASHRAEClearSky, !- Solar Model Indicator
           ,      !- Beam Solar Day Schedule Name
           ,      !- Diffuse Solar Day Schedule Name
           ,      !- ASHRAE Clear Sky Optical Depth for Beam Irradiance (taub)
           ,      !- ASHRAE Clear Sky Optical Depth for Diffuse Irradiance (taud)
       0.00;      !- Clearness {0.0 to 1.1}

SizingPeriod:DesignDay,
  Phoenix Sky Harbor Intl Ap Ann Clg .4% Condns DB=>MWB,     !- Name
          7,      !- Month
         21,      !- Day of Month
  SummerDesignDay,!- Day Type
       63.4,      !- Maximum Dry-Bulb Temperature {C}
         12,      !- Daily Dry-Bulb Temperature Range {C}
 DefaultMultipliers, !- Dry-Bulb Temperature Range Modifier Type
           ,      !- Dry-Bulb Temperature Range Modifier Schedule Name
    Wetbulb,      !- Humidity Condition Type
       21.1,      !- Wetbulb at Maximum Dry-Bulb {C}
           ,      !- Humidity Indicating Day Schedule Name
           ,      !- Humidity Ratio at Maximum Dry-Bulb {kgWater/kgDryAir}
           ,      !- Enthalpy at Maximum Dry-Bulb {J/kg}
           ,      !- Daily WetBulb Temperature Range {deltaC}
     97342.,      !- Barometric Pressure {Pa}
        4.1,      !- Wind Speed {m/s} design conditions vs. traditional 3.35 m/s (7mph)
        260,      !- Wind Direction {Degrees; N=0, S=180}
         No,      !- Rain {Yes/No}
         No,      !- Snow on ground {Yes/No}
         No,      !- Daylight Savings Time Indicator
       ASHRAETau, !- Solar Model Indicator
           ,      !- Beam Solar Day Schedule Name
           ,      !- Diffuse Solar Day Schedule Name
      0.588,      !- ASHRAE Clear Sky Optical Depth for Beam Irradiance (taub)
      1.653;      !- ASHRAE Clear Sky Optical Depth for Diffuse Irradiance (taud)


!-   ===========  ALL OBJECTS IN CLASS: RUNPERIOD ===========

RunPeriod,
    annual,                  !- Name
    1,                       !- Begin Month
    1,                       !- Begin Day of Month
    12,                      !- End Month
    31,                      !- End Day of Month
    UseWeatherFile,          !- Day of Week for Start Day
    Yes,                     !- Use Weather File Holidays and Special Days
    Yes,                     !- Use Weather File Daylight Saving Period
    No,                      !- Apply Weekend Holiday Rule
    Yes,                     !- Use Weather File Rain Indicators
    Yes,                     !- Use Weather File Snow Indicators
    1;                       !- Number of Times Runperiod to be Repeated


!-   ===========  ALL OBJECTS IN CLASS: SCHEDULETYPELIMITS ===========

ScheduleTypeLimits,
    any number;              !- Name

ScheduleTypeLimits,
    On/Off,                  !- Name
    0,                       !- Lower Limit Value
    1,                       !- Upper Limit Value
    Discrete;                !- Numeric Type

ScheduleTypeLimits,
    control_type,            !- Name
    0,                       !- Lower Limit Value
    4,                       !- Upper Limit Value
    Discrete;                !- Numeric Type

ScheduleTypeLimits,
    fraction,                !- Name
    0,                       !- Lower Limit Value
    1,                       !- Upper Limit Value
    Continuous;              !- Numeric Type

ScheduleTypeLimits,
    Temperature,             !- Name
    -60,                     !- Lower Limit Value
    200,                     !- Upper Limit Value
    Continuous;              !- Numeric Type


Schedule:Compact,
    BA_shower_sch,            !- Name
    any number,              !- Schedule Type Limits Name
    Through: 12/31,          !- Field 1
    For: AllDays,            !- Field 2
    Until: 1:00,0.00204721977777778,
    Until: 2:00,0.000930554444444445,
    Until: 3:00,0.000558332666666667,
    Until: 4:00,0.000930554444444445,
    Until: 5:00,0.00260555244444444,
    Until: 6:00,0.00967776622222222,
    Until: 7:00,0.0219610848888889,
    Until: 8:00,0.021774974,
    Until: 9:00,0.0176805344444444,
    Until: 10:00,0.0137722057777778,
    Until: 11:00,0.0111666533333333,
    Until: 12:00,0.00874721177777778,
    Until: 13:00,0.00632777022222222,
    Until: 14:00,0.00539721577777778,
    Until: 15:00,0.00483888311111111,
    Until: 16:00,0.00465277222222222,
    Until: 17:00,0.00558332666666667,
    Until: 18:00,0.00725832466666667,
    Until: 19:00,0.00781665733333333,
    Until: 20:00,0.00781665733333333,
    Until: 21:00,0.00781665733333333,
    Until: 22:00,0.00763054644444444,
    Until: 23:00,0.00539721577777778,
    Until: 24:00,0.00390832866666667;


Schedule:Compact,
    BA_bath_sch,            !- Name
    any number,              !- Schedule Type Limits Name
    Through: 12/31,          !- Field 1
    For: AllDays,            !- Field 2
    Until: 1:00,0.000190544545454545,
    Until: 2:00,9.52722727272727e-05,
    Until: 3:00,9.52722727272727e-05,
    Until: 4:00,9.52722727272727e-05,
    Until: 5:00,0.000190544545454545,
    Until: 6:00,0.000452543295454545,
    Until: 7:00,0.00109563113636364,
    Until: 8:00,0.00138144795454545,
    Until: 9:00,0.0015719925,
    Until: 10:00,0.00138144795454545,
    Until: 11:00,0.00109563113636364,
    Until: 12:00,0.000833632386363636,