!-Generator IDFEditor 1.36a
!-Option SortedOrder ViewInIPunits
!-NOTE: All comments with '!-' are ignored by the IDFEditor and are generated automatically.
!-      Use '!' comments if they need to be retained when using the IDFEditor.
! Varlist contains a list of variables used
! Simple glazing system considered
!-   ===========  ALL OBJECTS IN CLASS: VERSION ===========

  Version,8.9;

!-   ===========  ALL OBJECTS IN CLASS: GLOBALGEOMETRYRULES ===========

  GlobalGeometryRules,
    LowerLeftCorner,         !- Starting Vertex Position
    Counterclockwise,        !- Vertex Entry Direction
    Relative;                !- Coordinate System
! 
!- Geometry from the scalable geometry template
! 
!   BuildingSurface:Detailed,
!     Inter zone floor 1,      !- Name
!     Floor,                   !- Surface Type
!     Interior Floor,          !- Construction Name
!     living_unit1,            !- Zone Name
!     Adiabatic,               !- Outside Boundary Condition
!     ,                        !- Outside Boundary Condition Object
!     NoSun,                   !- Sun Exposure
!     NoWind,                  !- Wind Exposure
!     0.0,                     !- View Factor to Ground
!     4,                       !- Number of Vertices
!     0,0,2.59246341463415,  !- X,Y,Z ==> Vertex 1 {m}
!     0,9.15711496940971,2.59246341463415,  !- X,Y,Z ==> Vertex 2 {m}
!     12.1789629093149,9.15711496940971,2.59246341463415,  !- X,Y,Z ==> Vertex 3 {m}
!     12.1789629093149,0,2.59246341463415;  !- X,Y,Z ==> Vertex 4 {m}
! 
!   BuildingSurface:Detailed,
!     ceiling_unit1,           !- Name
!     Ceiling,                 !- Surface Type
!     Interior Ceiling,        !- Construction Name
!     living_unit1,            !- Zone Name
!     Zone,                    !- Outside Boundary Condition
!     attic_unit1,             !- Outside Boundary Condition Object
!     NoSun,                   !- Sun Exposure
!     NoWind,                  !- Wind Exposure
!     0.0,                     !- View Factor to Ground
!     4,                       !- Number of Vertices
!     0,0,5.18392682926829,  !- X,Y,Z ==> Vertex 1 {m}
!     12.1789629093149,0,5.18392682926829,  !- X,Y,Z ==> Vertex 2 {m}
!     12.1789629093149,9.15711496940971,5.18392682926829,  !- X,Y,Z ==> Vertex 3 {m}
!     0,9.15711496940971,5.18392682926829;  !- X,Y,Z ==> Vertex 4 {m}

!-   ===========  ALL OBJECTS IN CLASS: ZONE ===========

  Zone,
    living_unit1,            !- Name
    0.0,                     !- Direction of Relative North {deg}
    0.0,                     !- X Origin {m}
    0.0,                     !- Y Origin {m}
    0.0,                     !- Z Origin {m}
    ,                        !- Type
    1;                       !- Multiplier

  Zone,
    attic_unit1,             !- Name
    0.0,                     !- Direction of Relative North {deg}
    0.0,                     !- X Origin {m}
    0.0,                     !- Y Origin {m}
    0.0,                     !- Z Origin {m}
    ,                        !- Type
    1;                       !- Multiplier

  InternalMass,
    Internalmass_unit1,      !- Name
    InteriorFurnishings,     !- Construction Name
    living_unit1,            !- Zone Name
    9.99586947542338;        !- Surface Area {m2}
! 
!   BuildingSurface:Detailed,
!     Roof_front_unit1,        !- Name
!     Roof,                    !- Surface Type
!     Exterior Roof,           !- Construction Name
!     attic_unit1,             !- Zone Name
!     Outdoors,                !- Outside Boundary Condition
!     ,                        !- Outside Boundary Condition Object
!     SunExposed,              !- Sun Exposure
!     WindExposed,             !- Wind Exposure
!     0.0,                     !- View Factor to Ground
!     4,                       !- Number of Vertices
!     0,0,5.18392682926829,  !- X,Y,Z ==> Vertex 1 {m}
!     12.1789629093149,0,5.18392682926829,  !- X,Y,Z ==> Vertex 2 {m}
!     12.1789629093149,4.57855748470485,6.70911265750324,  !- X,Y,Z ==> Vertex 3 {m}
!     0,4.57855748470485,6.70911265750324;  !- X,Y,Z ==> Vertex 4 {m}
! 
!   BuildingSurface:Detailed,
!     Roof_back_unit1,         !- Name
!     Roof,                    !- Surface Type
!     Exterior Roof,           !- Construction Name
!     attic_unit1,             !- Zone Name
!     Outdoors,                !- Outside Boundary Condition
!     ,                        !- Outside Boundary Condition Object
!     SunExposed,              !- Sun Exposure
!     WindExposed,             !- Wind Exposure
!     0.0,                     !- View Factor to Ground
!     4,                       !- Number of Vertices
!     12.1789629093149,9.15711496940971,5.18392682926829,  !- X,Y,Z ==> Vertex 1 {m}
!     0,9.15711496940971,5.18392682926829,  !- X,Y,Z ==> Vertex 2 {m}
!     0,4.57855748470485,6.70911265750324,  !- X,Y,Z ==> Vertex 3 {m}
!     12.1789629093149,4.57855748470485,6.70911265750324;  !- X,Y,Z ==> Vertex 4 {m}
! 
!   BuildingSurface:Detailed,
!     Roof_right_unit1,        !- Name
!     Wall,                    !- Surface Type
!     Gable_end,               !- Construction Name
!     attic_unit1,             !- Zone Name
!     Outdoors,                !- Outside Boundary Condition
!     ,                        !- Outside Boundary Condition Object
!     SunExposed,              !- Sun Exposure
!     WindExposed,             !- Wind Exposure
!     ,                        !- View Factor to Ground
!     3,                       !- Number of Vertices
!     12.1789629093149,0,5.18392682926829,  !- X,Y,Z ==> Vertex 1 {m}
!     12.1789629093149,9.15711496940971,5.18392682926829,  !- X,Y,Z ==> Vertex 2 {m}
!     12.1789629093149,4.57855748470485,6.70911265750324;  !- X,Y,Z ==> Vertex 3 {m}
! 
!   BuildingSurface:Detailed,
!     Roof_left_unit1,         !- Name
!     Wall,                    !- Surface Type
!     Gable_end,               !- Construction Name
!     attic_unit1,             !- Zone Name
!     Outdoors,                !- Outside Boundary Condition
!     ,                        !- Outside Boundary Condition Object
!     SunExposed,              !- Sun Exposure
!     WindExposed,             !- Wind Exposure
!     ,                        !- View Factor to Ground
!     3,                       !- Number of Vertices
!     0,9.15711496940971,5.18392682926829,  !- X,Y,Z ==> Vertex 1 {m}
!     0,0,5.18392682926829,  !- X,Y,Z ==> Vertex 2 {m}
!     0,4.57855748470485,6.70911265750324;  !- X,Y,Z ==> Vertex 3 {m}
! 
!   BuildingSurface:Detailed,
!     Extfloor_unit1,          !- Name
!     Floor,                   !- Surface Type
!     Interior Floor,          !- Construction Name
!     living_unit1,            !- Zone Name
!     GroundSlabPreprocessorAverage,  !- Outside Boundary Condition
!     ,                        !- Outside Boundary Condition Object
!     NoSun,                   !- Sun Exposure
!     NoWind,                  !- Wind Exposure
!     0.0,                     !- View Factor to Ground
!     4,                       !- Number of Vertices
!     0,0,0.001,  !- X,Y,Z ==> Vertex 1 {m}
!     0,9.15711496940971,0.001,  !- X,Y,Z ==> Vertex 2 {m}
!     12.1789629093149,9.15711496940971,0.001,  !- X,Y,Z ==> Vertex 3 {m}
!     12.1789629093149,0,0.001;  !- X,Y,Z ==> Vertex 4 {m}
! 
!   BuildingSurface:Detailed,
!     Wall_ldf_1.unit1,        !- Name
!     Wall,                    !- Surface Type
!     Exterior Wall,           !- Construction Name
!     living_unit1,            !- Zone Name
!     Outdoors,                !- Outside Boundary Condition
!     ,                        !- Outside Boundary Condition Object
!     SunExposed,              !- Sun Exposure
!     WindExposed,             !- Wind Exposure
!     ,                        !- View Factor to Ground
!     4,                       !- Number of Vertices
!     0,0,0.001,  !- X,Y,Z ==> Vertex 1 {m}
!     12.1789629093149,0,0.001,  !- X,Y,Z ==> Vertex 2 {m}
!     12.1789629093149,0,2.59246341463415,  !- X,Y,Z ==> Vertex 3 {m}
!     0,0,2.59246341463415;  !- X,Y,Z ==> Vertex 4 {m}
! 
!   BuildingSurface:Detailed,
!     Wall_sdr_1.unit1,        !- Name
!     Wall,                    !- Surface Type
!     Exterior Wall,           !- Construction Name
!     living_unit1,            !- Zone Name
!     Outdoors,                !- Outside Boundary Condition
!     ,                        !- Outside Boundary Condition Object
!     SunExposed,              !- Sun Exposure
!     WindExposed,             !- Wind Exposure
!     ,                        !- View Factor to Ground
!     4,                       !- Number of Vertices
!     12.1789629093149,0,0.001,  !- X,Y,Z ==> Vertex 1 {m}
!     12.1789629093149,9.15711496940971,0.001,  !- X,Y,Z ==> Vertex 2 {m}
!     12.1789629093149,9.15711496940971,2.59246341463415,  !- X,Y,Z ==> Vertex 3 {m}
!     12.1789629093149,0,2.59246341463415;  !- X,Y,Z ==> Vertex 4 {m}
! 
!   BuildingSurface:Detailed,
!     Wall_ldb_1.unit1,        !- Name
!     Wall,                    !- Surface Type
!     Exterior Wall,           !- Construction Name
!     living_unit1,            !- Zone Name
!     Outdoors,                !- Outside Boundary Condition
!     ,                        !- Outside Boundary Condition Object
!     SunExposed,              !- Sun Exposure
!     WindExposed,             !- Wind Exposure
!     ,                        !- View Factor to Ground
!     4,                       !- Number of Vertices
!     12.1789629093149,9.15711496940971,0.001,  !- X,Y,Z ==> Vertex 1 {m}
!     0,9.15711496940971,0.001,  !- X,Y,Z ==> Vertex 2 {m}
!     0,9.15711496940971,2.59246341463415,  !- X,Y,Z ==> Vertex 3 {m}
!     12.1789629093149,9.15711496940971,2.59246341463415;  !- X,Y,Z ==> Vertex 4 {m}
! 
!   BuildingSurface:Detailed,
!     Wall_sdl_1.unit1,        !- Name
!     Wall,                    !- Surface Type
!     Exterior Wall,           !- Construction Name
!     living_unit1,            !- Zone Name
!     Outdoors,                !- Outside Boundary Condition
!     ,                        !- Outside Boundary Condition Object
!     SunExposed,              !- Sun Exposure
!     WindExposed,             !- Wind Exposure
!     ,                        !- View Factor to Ground
!     4,                       !- Number of Vertices
!     0,9.15711496940971,0.001,  !- X,Y,Z ==> Vertex 1 {m}
!     0,0,0.001,  !- X,Y,Z ==> Vertex 2 {m}
!     0,0,2.59246341463415,  !- X,Y,Z ==> Vertex 3 {m}
!     0,9.15711496940971,2.59246341463415;  !- X,Y,Z ==> Vertex 4 {m}

  Window,
    Window_ldf_1.unit1,      !- Name
    Exterior Window,         !- Construction Name
    Wall_ldf_1.unit1,        !- Building Surface Name
    Shades,                  !- Shading Control Name
    ,                        !- Frame and Divider Name
    1,                       !- Multiplier
    1.91449814126394,        !- Starting X Coordinate {m}
    0.914634146341463,       !- Starting Z Coordinate {m}
    2.72034992953739,        !- Length {m}
    1.52439024390244;        !- Height {m}

  Window,
    Window_ldb_1.unit1,      !- Name
    Exterior Window,         !- Construction Name
    Wall_ldb_1.unit1,        !- Building Surface Name
    Shades,                  !- Shading Control Name
    ,                        !- Frame and Divider Name
    1,                       !- Multiplier
    1.91449814126394,        !- Starting X Coordinate {m}
    0.914634146341463,       !- Starting Z Coordinate {m}
    2.72034992953739,        !- Length {m}
    1.52439024390244;        !- Height {m}

  Window,
    Window_sdr_1.unit1,      !- Name
    Exterior Window,         !- Construction Name
    Wall_sdr_1.unit1,        !- Building Surface Name
    Shades,                  !- Shading Control Name
    ,                        !- Frame and Divider Name
    1,                       !- Multiplier
    1,                       !- Starting X Coordinate {m}
    0.914634146341463,       !- Starting Z Coordinate {m}
    2.72034992953739,        !- Length {m}
    1.52439024390244;        !- Height {m}

  Shading:Overhang,
    Overhang_sdr_1.unit1,    !- Name
    Window_sdr_1.unit1,      !- Window or Door Name
    0,                       !- Height above Window or Door {m}
    90,                      !- Tilt Angle from Window/Door {deg}
    0,                       !- Left extension from Window/Door Width {m}
    0,                       !- Right extension from Window/Door Width {m}
    0.0152439024390244;      !- Depth {m}

  Window,
    Window_sdl_1.unit1,      !- Name
    Exterior Window,         !- Construction Name
    Wall_sdl_1.unit1,        !- Building Surface Name
    Shades,                  !- Shading Control Name
    ,                        !- Frame and Divider Name
    1,                       !- Multiplier
    1,                       !- Starting X Coordinate {m}
    0.914634146341463,       !- Starting Z Coordinate {m}
    2.72034992953739,        !- Length {m}
    1.52439024390244;        !- Height {m}
! 
!   BuildingSurface:Detailed,
!     Wall_ldf_2.unit1,        !- Name
!     Wall,                    !- Surface Type
!     Exterior Wall,           !- Construction Name
!     living_unit1,            !- Zone Name
!     Outdoors,                !- Outside Boundary Condition
!     ,                        !- Outside Boundary Condition Object
!     SunExposed,              !- Sun Exposure
!     WindExposed,             !- Wind Exposure
!     ,                        !- View Factor to Ground
!     4,                       !- Number of Vertices
!     0,0,2.59246341463415,  !- X,Y,Z ==> Vertex 1 {m}
!     12.1789629093149,0,2.59246341463415,  !- X,Y,Z ==> Vertex 2 {m}
!     12.1789629093149,0,5.18392682926829,  !- X,Y,Z ==> Vertex 3 {m}
!     0,0,5.18392682926829;  !- X,Y,Z ==> Vertex 4 {m}
! 
!   BuildingSurface:Detailed,
!     Wall_sdr_2.unit1,        !- Name
!     Wall,                    !- Surface Type
!     Exterior Wall,           !- Construction Name
!     living_unit1,            !- Zone Name
!     Outdoors,                !- Outside Boundary Condition
!     ,                        !- Outside Boundary Condition Object
!     SunExposed,              !- Sun Exposure
!     WindExposed,             !- Wind Exposure
!     ,                        !- View Factor to Ground
!     4,                       !- Number of Vertices
!     12.1789629093149,0,2.59246341463415,  !- X,Y,Z ==> Vertex 1 {m}
!     12.1789629093149,9.15711496940971,2.59246341463415,  !- X,Y,Z ==> Vertex 2 {m}
!     12.1789629093149,9.15711496940971,5.18392682926829,  !- X,Y,Z ==> Vertex 3 {m}
!     12.1789629093149,0,5.18392682926829;  !- X,Y,Z ==> Vertex 4 {m}
! 
!   BuildingSurface:Detailed,
!     Wall_ldb_2.unit1,        !- Name
!     Wall,                    !- Surface Type
!     Exterior Wall,           !- Construction Name
!     living_unit1,            !- Zone Name
!     Outdoors,                !- Outside Boundary Condition
!     ,                        !- Outside Boundary Condition Object
!     SunExposed,              !- Sun Exposure
!     WindExposed,             !- Wind Exposure
!     ,                        !- View Factor to Ground
!     4,                       !- Number of Vertices
!     12.1789629093149,9.15711496940971,2.59246341463415,  !- X,Y,Z ==> Vertex 1 {m}
!     0,9.15711496940971,2.59246341463415,  !- X,Y,Z ==> Vertex 2 {m}
!     0,9.15711496940971,5.18392682926829,  !- X,Y,Z ==> Vertex 3 {m}
!     12.1789629093149,9.15711496940971,5.18392682926829;  !- X,Y,Z ==> Vertex 4 {m}
! 
!   BuildingSurface:Detailed,
!     Wall_sdl_2.unit1,        !- Name
!     Wall,                    !- Surface Type
!     Exterior Wall,           !- Construction Name
!     living_unit1,            !- Zone Name
!     Outdoors,                !- Outside Boundary Condition
!     ,                        !- Outside Boundary Condition Object
!     SunExposed,              !- Sun Exposure
!     WindExposed,             !- Wind Exposure
!     ,                        !- View Factor to Ground
!     4,                       !- Number of Vertices
!     0,9.15711496940971,2.59246341463415,  !- X,Y,Z ==> Vertex 1 {m}
!     0,0,2.59246341463415,  !- X,Y,Z ==> Vertex 2 {m}
!     0,0,5.18392682926829,  !- X,Y,Z ==> Vertex 3 {m}
!     0,9.15711496940971,5.18392682926829;  !- X,Y,Z ==> Vertex 4 {m}

  Window,
    Window_ldf_2.unit1,      !- Name
    Exterior Window,         !- Construction Name
    Wall_ldf_2.unit1,        !- Building Surface Name
    Shades,                  !- Shading Control Name
    ,                        !- Frame and Divider Name
    1,                       !- Multiplier
    1.91449814126394,        !- Starting X Coordinate {m}
    0.914634146341463,       !- Starting Z Coordinate {m}
    2.72034992953739,        !- Length {m}
    1.52439024390244;        !- Height {m}

  Window,
    Window_ldb_2.unit1,      !- Name
    Exterior Window,         !- Construction Name
    Wall_ldb_2.unit1,        !- Building Surface Name
    Shades,                  !- Shading Control Name
    ,                        !- Frame and Divider Name
    1,                       !- Multiplier
    1.91449814126394,        !- Starting X Coordinate {m}
    0.914634146341463,       !- Starting Z Coordinate {m}
    2.72034992953739,        !- Length {m}
    1.52439024390244;        !- Height {m}

  Window,
    Window_sdr_2.unit1,      !- Name
    Exterior Window,         !- Construction Name
    Wall_sdr_2.unit1,        !- Building Surface Name
    Shades,                  !- Shading Control Name
    ,                        !- Frame and Divider Name
    1,                       !- Multiplier
    1,                       !- Starting X Coordinate {m}
    0.914634146341463,       !- Starting Z Coordinate {m}
    2.72034992953739,        !- Length {m}
    1.52439024390244;        !- Height {m}

  Shading:Overhang,
    Overhang_sdr_2.unit1,    !- Name
    Window_sdr_2.unit1,      !- Window or Door Name
    0,                       !- Height above Window or Door {m}
    90,                      !- Tilt Angle from Window/Door {deg}
    0,                       !- Left extension from Window/Door Width {m}
    0,                       !- Right extension from Window/Door Width {m}
    0.0152439024390244;      !- Depth {m}

  Window,
    Window_sdl_2.unit1,      !- Name
    Exterior Window,         !- Construction Name
    Wall_sdl_2.unit1,        !- Building Surface Name
    Shades,                  !- Shading Control Name
    ,                        !- Frame and Divider Name
    1,                       !- Multiplier
    1,                       !- Starting X Coordinate {m}
    0.914634146341463,       !- Starting Z Coordinate {m}
    2.72034992953739,        !- Length {m}
    1.52439024390244;        !- Height {m}

  Door,
    Door_ldf_unit1,          !- Name
    Exterior Door,           !- Construction Name
    Wall_ldf_1.unit1,        !- Building Surface Name
    1,                       !- Multiplier
    0.5,                     !- Starting X Coordinate {m}
    0,                       !- Starting Z Coordinate {m}
    0.914498141263941,       !- Length {m}
    2.13414634146341;        !- Height {m}

  Door,
    Door_ldb_unit1,          !- Name
    Exterior Door,           !- Construction Name
    Wall_ldb_1.unit1,        !- Building Surface Name
    1,                       !- Multiplier
    0.5,                     !- Starting X Coordinate {m}
    0,                       !- Starting Z Coordinate {m}
    0.914498141263941,       !- Length {m}
    2.13414634146341;        !- Height {m}

!- Consolidated wall and floor materials from consolidated.materials.template..
!-   ===========  ALL OBJECTS IN CLASS: SIMULATIONCONTROL ===========

  SimulationControl,
    Yes,                     !- Do Zone Sizing Calculation
    Yes,                     !- Do System Sizing Calculation
    No,                      !- Do Plant Sizing Calculation
    Yes,                     !- Run Simulation for Sizing Periods
    Yes;                     !- Run Simulation for Weather File Run Periods

!-   ===========  ALL OBJECTS IN CLASS: SURFACECONVECTIONALGORITHM:INSIDE ===========

  SurfaceConvectionAlgorithm:Inside,TARP;

!-   ===========  ALL OBJECTS IN CLASS: BUILDING ===========

  Building,
    SF_Illinois_St.Louis-Lambert.Intl.AP.724340_gasfurnace_slab_IECC_2012,  !- Name
    0,                       !- North Axis {deg}
    Suburbs,                 !- Terrain
    0.04,                    !- Loads Convergence Tolerance Value
    0.4,                     !- Temperature Convergence Tolerance Value {deltaC}
    FullExterior,            !- Solar Distribution
    25,                      !- Maximum Number of Warmup Days
    6;                       !- Minimum Number of Warmup Days

!-   ===========  ALL OBJECTS IN CLASS: TIMESTEP ===========

  Timestep,4;

!-   ===========  ALL OBJECTS IN CLASS: SITE:LOCATION ===========
! Weather_file = USA_MO_St.Louis-Lambert.Intl.AP.724340_TMY3.epw;
! Using the stat2idf and the ddy2idf script...
! Water mains temperature correlation object created by:
! Water mains temperature object created by:
! /phome/resstd/vm/bin/stat2idf /phome/weather/EnergyPlus/tmy3/usa/zip/USA_MO_St.Louis-Lambert.Intl.AP.724340_TMY3.stat
!

  Site:WaterMainsTemperature,
    Correlation,             !- Calculation Method
    ,                        !- Temperature Schedule Name
    13.3416666666667,        !- Annual Average Outdoor Air Temperature {C}
    28.7;                    !- Maximum Difference In Monthly Average Outdoor Air Temperatures {deltaC}

! Location and design-day objects created by:
! Site:Location and design-day objects created by:
! /tools/bin/ddy2idf /phome/weather/EnergyPlus/tmy3/usa/zip/USA_MO_St.Louis-Lambert.Intl.AP.724340_TMY3.ddy
!

  Site:Location,
    St Louis Lambert IntL Arpt_MO_USA Design_Conditions,  !- Name
    38.75,                   !- Latitude {deg}
    -90.37,                  !- Longitude {deg}
    -6.00,                   !- Time Zone {hr}
    173.00;                  !- Elevation {m}

  SizingPeriod:DesignDay,
    St Louis Lambert IntL Arpt Ann Htg 99.6% Condns DB,  !- Name
    1,                       !- Month
    21,                      !- Day of Month
    WinterDesignDay,         !- Day Type
    -15.5,                   !- Maximum Dry-Bulb Temperature {C}
    0.0,                     !- Daily Dry-Bulb Temperature Range {deltaC}
    ,                        !- Dry-Bulb Temperature Range Modifier Type
    ,                        !- Dry-Bulb Temperature Range Modifier Day Schedule Name
    Wetbulb,                 !- Humidity Condition Type
    -15.5,                   !- Wetbulb or DewPoint at Maximum Dry-Bulb {C}
    ,                        !- Humidity Condition Day Schedule Name
    ,                        !- Humidity Ratio at Maximum Dry-Bulb {kgWater/kgDryAir}
    ,                        !- Enthalpy at Maximum Dry-Bulb {J/kg}
    ,                        !- Daily Wet-Bulb Temperature Range {deltaC}
    99264.,                  !- Barometric Pressure {Pa}
    4.7,                     !- Wind Speed {m/s}
    300,                     !- Wind Direction {deg}
    No,                      !- Rain Indicator
    No,                      !- Snow Indicator
    No,                      !- Daylight Saving Time Indicator
    ASHRAEClearSky,          !- Solar Model Indicator
    ,                        !- Beam Solar Day Schedule Name
    ,                        !- Diffuse Solar Day Schedule Name
    ,                        !- ASHRAE Clear Sky Optical Depth for Beam Irradiance (taub) {dimensionless}
    ,                        !- ASHRAE Clear Sky Optical Depth for Diffuse Irradiance (taud) {dimensionless}
    0.00;                    !- Sky Clearness

  SizingPeriod:DesignDay,
    St Louis Lambert IntL Arpt Ann Clg .4% Condns DB=>MWB,  !- Name
    7,                       !- Month
    21,                      !- Day of Month
    SummerDesignDay,         !- Day Type
    35.4,                    !- Maximum Dry-Bulb Temperature {C}
    9.5,                     !- Daily Dry-Bulb Temperature Range {deltaC}
    ,                        !- Dry-Bulb Temperature Range Modifier Type
    ,                        !- Dry-Bulb Temperature Range Modifier Day Schedule Name
    Wetbulb,                 !- Humidity Condition Type
    24.9,                    !- Wetbulb or DewPoint at Maximum Dry-Bulb {C}
    ,                        !- Humidity Condition Day Schedule Name
    ,                        !- Humidity Ratio at Maximum Dry-Bulb {kgWater/kgDryAir}
    ,                        !- Enthalpy at Maximum Dry-Bulb {J/kg}
    ,                        !- Daily Wet-Bulb Temperature Range {deltaC}
    99264.,                  !- Barometric Pressure {Pa}
    4.6,                     !- Wind Speed {m/s}
    240,                     !- Wind Direction {deg}
    No,                      !- Rain Indicator
    No,                      !- Snow Indicator
    No,                      !- Daylight Saving Time Indicator
    ASHRAEClearSky,          !- Solar Model Indicator
    ,                        !- Beam Solar Day Schedule Name
    ,                        !- Diffuse Solar Day Schedule Name
    ,                        !- ASHRAE Clear Sky Optical Depth for Beam Irradiance (taub) {dimensionless}
    ,                        !- ASHRAE Clear Sky Optical Depth for Diffuse Irradiance (taud) {dimensionless}
    1.00;                    !- Sky Clearness

!-   ===========  ALL OBJECTS IN CLASS: RUNPERIOD ===========

  RunPeriod,
    annual,                  !- Name
    1,                       !- Begin Month
    1,                       !- Begin Day of Month
    12,                      !- End Month
    31,                      !- End Day of Month
    UseWeatherFile,          !- Day of Week for Start Day
    Yes,                     !- Use Weather File Holidays and Special Days
    Yes,                     !- Use Weather File Daylight Saving Period
    No,                      !- Apply Weekend Holiday Rule
    Yes,                     !- Use Weather File Rain Indicators
    Yes,                     !- Use Weather File Snow Indicators
    1;                       !- Number of Times Runperiod to be Repeated

!-   ===========  ALL OBJECTS IN CLASS: SCHEDULETYPELIMITS ===========

  ScheduleTypeLimits,
    any number;              !- Name

  ScheduleTypeLimits,
    On/Off,                  !- Name
    0,                       !- Lower Limit Value
    1,                       !- Upper Limit Value
    Discrete;                !- Numeric Type

  ScheduleTypeLimits,
    control_type,            !- Name
    0,                       !- Lower Limit Value
    4,                       !- Upper Limit Value
    Discrete;                !- Numeric Type

  ScheduleTypeLimits,
    fraction,                !- Name
    0,                       !- Lower Limit Value
    1,                       !- Upper Limit Value
    Continuous;              !- Numeric Type

  ScheduleTypeLimits,
    Temperature,             !- Name
    -60,                     !- Lower Limit Value
    200,                     !- Upper Limit Value
    Continuous;              !- Numeric Type

!- lighting schedule from the doe-2 template..

  Schedule:Day:Hourly,
    S-Lighting-day,          !- Name
    Fraction,                !- Schedule Type Limits Name
    0.16,                    !- Hour 1
    0.15,                    !- Hour 2
    0.16,                    !- Hour 3
    0.18,                    !- Hour 4
    0.23,                    !- Hour 5
    0.45,                    !- Hour 6
    0.4,                     !- Hour 7
    0.26,                    !- Hour 8
    0.19,                    !- Hour 9
    0.16,                    !- Hour 10
    0.12,                    !- Hour 11
    0.11,                    !- Hour 12
    0.16,                    !- Hour 13
    0.17,                    !- Hour 14
    0.25,                    !- Hour 15
    0.27,                    !- Hour 16
    0.34,                    !- Hour 17
    0.55,                    !- Hour 18
    0.55,                    !- Hour 19
    0.88,                    !- Hour 20
    1,                       !- Hour 21
    0.86,                    !- Hour 22
    0.51,                    !- Hour 23
    0.28;                    !- Hour 24

  Schedule:Week:Compact,
    S-Lighting-week,         !- Name
    AllDays,                 !- DayType List 1
    S-Lighting-day;          !- Schedule:Day Name 1

  Schedule:Year,
    S-Lighting,              !- Name
    fraction,                !- Schedule Type Limits Name
    S-Lighting-week,         !- Schedule:Week Name 1
    1,                       !- Start Month 1
    1,                       !- Start Day 1
    12,                      !- End Month 1
    31;                      !- End Day 1

!
! *** Occupancy and Lighting factors taken from NREL's benchmark model ***
!- All water use schedules are from NREL's Seattle Benchmark model
!

  Schedule:Day:Hourly,
    OccupancyDay,            !- Name
    Fraction,                !- Schedule Type Limits Name
    1.00000,                 !- Hour 1
    1.00000,                 !- Hour 2
    1.00000,                 !- Hour 3
    1.00000,                 !- Hour 4
    1.00000,                 !- Hour 5
    1.00000,                 !- Hour 6
    1.00000,                 !- Hour 7
    0.88310,                 !- Hour 8
    0.40861,                 !- Hour 9
    0.24189,                 !- Hour 10
    0.24189,                 !- Hour 11
    0.24189,                 !- Hour 12
    0.24189,                 !- Hour 13
    0.24189,                 !- Hour 14
    0.24189,                 !- Hour 15
    0.24189,                 !- Hour 16
    0.29498,                 !- Hour 17
    0.55310,                 !- Hour 18
    0.89693,                 !- Hour 19
    0.89693,                 !- Hour 20
    0.89693,                 !- Hour 21
    1.00000,                 !- Hour 22
    1.00000,                 !- Hour 23
    1.00000;                 !- Hour 24

  Schedule:Day:Hourly,
    LightingProfileDay,      !- Name